**************************************************
* OpenRAM generated memory.
* Words: 16
* Data bits: 16
* Banks: 1
* Column mux: 1:1
**************************************************
* File: DFFPOSX1.pex.netlist
* Created: Wed Jan  2 18:36:24 2008
* Program "Calibre xRC"
* Version "v2007.2_34.24"
*
.inc /cad/freepdk/FreePDK45/ncsu_basekit/models/hspice/hspice_nom.include
.inc ../sp/1t1r.sp

.subckt dff D Q clk vdd gnd
*
MM21 Q a_66_6# gnd gnd NMOS_VTG L=5e-08 W=5e-07
MM19 a_76_6# a_2_6# a_66_6# gnd NMOS_VTG L=5e-08 W=2.5e-07
MM20 gnd Q a_76_6# gnd NMOS_VTG L=5e-08 W=2.5e-07
MM18 a_66_6# clk a_61_6# gnd NMOS_VTG L=5e-08 W=2.5e-07
MM17 a_61_6# a_34_4# gnd gnd NMOS_VTG L=5e-08 W=2.5e-07
MM10 gnd clk a_2_6# gnd NMOS_VTG L=5e-08 W=5e-07
MM16 a_34_4# a_22_6# gnd gnd NMOS_VTG L=5e-08 W=2.5e-07
MM15 gnd a_34_4# a_31_6# gnd NMOS_VTG L=5e-08 W=2.5e-07
MM14 a_31_6# clk a_22_6# gnd NMOS_VTG L=5e-08 W=2.5e-07
MM13 a_22_6# a_2_6# a_17_6# gnd NMOS_VTG L=5e-08 W=2.5e-07
MM12 a_17_6# D gnd gnd NMOS_VTG L=5e-08 W=2.5e-07
MM11 Q a_66_6# vdd vdd PMOS_VTG L=5e-08 W=1e-06
MM9 vdd Q a_76_84# vdd PMOS_VTG L=5e-08 W=2.5e-07
MM8 a_76_84# clk a_66_6# vdd PMOS_VTG L=5e-08 W=2.5e-07
MM7 a_66_6# a_2_6# a_61_74# vdd PMOS_VTG L=5e-08 W=5e-07
MM6 a_61_74# a_34_4# vdd vdd PMOS_VTG L=5e-08 W=5e-07
MM0 vdd clk a_2_6# vdd PMOS_VTG L=5e-08 W=1e-06
MM5 a_34_4# a_22_6# vdd vdd PMOS_VTG L=5e-08 W=5e-07
MM4 vdd a_34_4# a_31_74# vdd PMOS_VTG L=5e-08 W=5e-07
MM3 a_31_74# a_2_6# a_22_6# vdd PMOS_VTG L=5e-08 W=5e-07
MM2 a_22_6# clk a_17_74# vdd PMOS_VTG L=5e-08 W=5e-07
MM1 a_17_74# D vdd vdd PMOS_VTG L=5e-08 W=5e-07
* c_9 a_66_6# 0 0.271997f
* c_20 clk 0 0.350944f
* c_27 Q 0 0.202617f
* c_32 a_76_84# 0 0.0210573f
* c_38 a_76_6# 0 0.0204911f
* c_45 a_34_4# 0 0.172306f
* c_55 a_2_6# 0 0.283119f
* c_59 a_22_6# 0 0.157312f
* c_64 D 0 0.0816386f
* c_73 gnd 0 0.254131f
* c_81 vdd 0 0.23624f
*
*.include "dff.pex.netlist.dff.pxi"
*
.ends
*
*

.SUBCKT row_addr_dff din_0 din_1 din_2 din_3 dout_0 dout_1 dout_2 dout_3 clk vdd gnd
* INPUT : din_0 
* INPUT : din_1 
* INPUT : din_2 
* INPUT : din_3 
* OUTPUT: dout_0 
* OUTPUT: dout_1 
* OUTPUT: dout_2 
* OUTPUT: dout_3 
* INPUT : clk 
* POWER : vdd 
* GROUND: gnd 
* rows: 4 cols: 1
Xdff_r0_c0 din_0 dout_0 clk vdd gnd dff
Xdff_r1_c0 din_1 dout_1 clk vdd gnd dff
Xdff_r2_c0 din_2 dout_2 clk vdd gnd dff
Xdff_r3_c0 din_3 dout_3 clk vdd gnd dff
.ENDS row_addr_dff

.SUBCKT data_dff din_0 din_1 din_2 din_3 din_4 din_5 din_6 din_7 din_8 din_9 din_10 din_11 din_12 din_13 din_14 din_15 dout_0 dout_1 dout_2 dout_3 dout_4 dout_5 dout_6 dout_7 dout_8 dout_9 dout_10 dout_11 dout_12 dout_13 dout_14 dout_15 clk vdd gnd
* INPUT : din_0 
* INPUT : din_1 
* INPUT : din_2 
* INPUT : din_3 
* INPUT : din_4 
* INPUT : din_5 
* INPUT : din_6 
* INPUT : din_7 
* INPUT : din_8 
* INPUT : din_9 
* INPUT : din_10 
* INPUT : din_11 
* INPUT : din_12 
* INPUT : din_13 
* INPUT : din_14 
* INPUT : din_15 
* OUTPUT: dout_0 
* OUTPUT: dout_1 
* OUTPUT: dout_2 
* OUTPUT: dout_3 
* OUTPUT: dout_4 
* OUTPUT: dout_5 
* OUTPUT: dout_6 
* OUTPUT: dout_7 
* OUTPUT: dout_8 
* OUTPUT: dout_9 
* OUTPUT: dout_10 
* OUTPUT: dout_11 
* OUTPUT: dout_12 
* OUTPUT: dout_13 
* OUTPUT: dout_14 
* OUTPUT: dout_15 
* INPUT : clk 
* POWER : vdd 
* GROUND: gnd 
* rows: 1 cols: 16
Xdff_r0_c0 din_0 dout_0 clk vdd gnd dff
Xdff_r0_c1 din_1 dout_1 clk vdd gnd dff
Xdff_r0_c2 din_2 dout_2 clk vdd gnd dff
Xdff_r0_c3 din_3 dout_3 clk vdd gnd dff
Xdff_r0_c4 din_4 dout_4 clk vdd gnd dff
Xdff_r0_c5 din_5 dout_5 clk vdd gnd dff
Xdff_r0_c6 din_6 dout_6 clk vdd gnd dff
Xdff_r0_c7 din_7 dout_7 clk vdd gnd dff
Xdff_r0_c8 din_8 dout_8 clk vdd gnd dff
Xdff_r0_c9 din_9 dout_9 clk vdd gnd dff
Xdff_r0_c10 din_10 dout_10 clk vdd gnd dff
Xdff_r0_c11 din_11 dout_11 clk vdd gnd dff
Xdff_r0_c12 din_12 dout_12 clk vdd gnd dff
Xdff_r0_c13 din_13 dout_13 clk vdd gnd dff
Xdff_r0_c14 din_14 dout_14 clk vdd gnd dff
Xdff_r0_c15 din_15 dout_15 clk vdd gnd dff
.ENDS data_dff

* spice ptx M{0} {1} nmos_vtg m=1 w=0.18u l=0.05u pd=0.46u ps=0.46u as=0.02p ad=0.02p

* spice ptx M{0} {1} nmos_vtg m=1 w=0.18u l=0.05u pd=0.46u ps=0.46u as=0.02p ad=0.02p

* spice ptx M{0} {1} pmos_vtg m=1 w=0.27u l=0.05u pd=0.64u ps=0.64u as=0.03p ad=0.03p

.SUBCKT pnand2 A B Z vdd gnd
* INPUT : A 
* INPUT : B 
* OUTPUT: Z 
* POWER : vdd 
* GROUND: gnd 
Mpnand2_pmos1 vdd A Z vdd pmos_vtg m=1 w=0.27u l=0.05u pd=0.64u ps=0.64u as=0.03p ad=0.03p
Mpnand2_pmos2 Z B vdd vdd pmos_vtg m=1 w=0.27u l=0.05u pd=0.64u ps=0.64u as=0.03p ad=0.03p
Mpnand2_nmos1 Z B net1 gnd nmos_vtg m=1 w=0.18u l=0.05u pd=0.46u ps=0.46u as=0.02p ad=0.02p
Mpnand2_nmos2 net1 A gnd gnd nmos_vtg m=1 w=0.18u l=0.05u pd=0.46u ps=0.46u as=0.02p ad=0.02p
.ENDS pnand2

* spice ptx M{0} {1} nmos_vtg m=1 w=0.09u l=0.05u pd=0.28u ps=0.28u as=0.01p ad=0.01p

* spice ptx M{0} {1} pmos_vtg m=1 w=0.27u l=0.05u pd=0.64u ps=0.64u as=0.03p ad=0.03p

.SUBCKT pinv A Z vdd gnd
* INPUT : A 
* OUTPUT: Z 
* POWER : vdd 
* GROUND: gnd 
Mpinv_pmos Z A vdd vdd pmos_vtg m=1 w=0.27u l=0.05u pd=0.64u ps=0.64u as=0.03p ad=0.03p
Mpinv_nmos Z A gnd gnd nmos_vtg m=1 w=0.09u l=0.05u pd=0.28u ps=0.28u as=0.01p ad=0.01p
.ENDS pinv

.SUBCKT and2_dec A B Z vdd gnd
* INPUT : A 
* INPUT : B 
* OUTPUT: Z 
* POWER : vdd 
* GROUND: gnd 
* size: 1
Xpand2_dec_nand A B zb_int vdd gnd pnand2
Xpand2_dec_inv zb_int Z vdd gnd pinv
.ENDS and2_dec

* spice ptx M{0} {1} nmos_vtg m=1 w=0.18u l=0.05u pd=0.46u ps=0.46u as=0.02p ad=0.02p

.SUBCKT pnand3 A B C Z vdd gnd
* INPUT : A 
* INPUT : B 
* INPUT : C 
* OUTPUT: Z 
* POWER : vdd 
* GROUND: gnd 
Mpnand3_pmos1 vdd A Z vdd pmos_vtg m=1 w=0.27u l=0.05u pd=0.64u ps=0.64u as=0.03p ad=0.03p
Mpnand3_pmos2 Z B vdd vdd pmos_vtg m=1 w=0.27u l=0.05u pd=0.64u ps=0.64u as=0.03p ad=0.03p
Mpnand3_pmos3 Z C vdd vdd pmos_vtg m=1 w=0.27u l=0.05u pd=0.64u ps=0.64u as=0.03p ad=0.03p
Mpnand3_nmos1 Z C net1 gnd nmos_vtg m=1 w=0.18u l=0.05u pd=0.46u ps=0.46u as=0.02p ad=0.02p
Mpnand3_nmos2 net1 B net2 gnd nmos_vtg m=1 w=0.18u l=0.05u pd=0.46u ps=0.46u as=0.02p ad=0.02p
Mpnand3_nmos3 net2 A gnd gnd nmos_vtg m=1 w=0.18u l=0.05u pd=0.46u ps=0.46u as=0.02p ad=0.02p
.ENDS pnand3

.SUBCKT and3_dec A B C Z vdd gnd
* INPUT : A 
* INPUT : B 
* INPUT : C 
* OUTPUT: Z 
* POWER : vdd 
* GROUND: gnd 
* size: 1
Xpand3_dec_nand A B C zb_int vdd gnd pnand3
Xpand3_dec_inv zb_int Z vdd gnd pinv
.ENDS and3_dec

.SUBCKT hierarchical_predecode2x4 in_0 in_1 out_0 out_1 out_2 out_3 vdd gnd
* INPUT : in_0 
* INPUT : in_1 
* OUTPUT: out_0 
* OUTPUT: out_1 
* OUTPUT: out_2 
* OUTPUT: out_3 
* POWER : vdd 
* GROUND: gnd 
Xpre_inv_0 in_0 inbar_0 vdd gnd pinv
Xpre_inv_1 in_1 inbar_1 vdd gnd pinv
XXpre2x4_and_0 inbar_0 inbar_1 out_0 vdd gnd and2_dec
XXpre2x4_and_1 in_0 inbar_1 out_1 vdd gnd and2_dec
XXpre2x4_and_2 inbar_0 in_1 out_2 vdd gnd and2_dec
XXpre2x4_and_3 in_0 in_1 out_3 vdd gnd and2_dec
.ENDS hierarchical_predecode2x4

.SUBCKT hierarchical_predecode3x8 in_0 in_1 in_2 out_0 out_1 out_2 out_3 out_4 out_5 out_6 out_7 vdd gnd
* INPUT : in_0 
* INPUT : in_1 
* INPUT : in_2 
* OUTPUT: out_0 
* OUTPUT: out_1 
* OUTPUT: out_2 
* OUTPUT: out_3 
* OUTPUT: out_4 
* OUTPUT: out_5 
* OUTPUT: out_6 
* OUTPUT: out_7 
* POWER : vdd 
* GROUND: gnd 
Xpre_inv_0 in_0 inbar_0 vdd gnd pinv
Xpre_inv_1 in_1 inbar_1 vdd gnd pinv
Xpre_inv_2 in_2 inbar_2 vdd gnd pinv
XXpre3x8_and_0 inbar_0 inbar_1 inbar_2 out_0 vdd gnd and3_dec
XXpre3x8_and_1 in_0 inbar_1 inbar_2 out_1 vdd gnd and3_dec
XXpre3x8_and_2 inbar_0 in_1 inbar_2 out_2 vdd gnd and3_dec
XXpre3x8_and_3 in_0 in_1 inbar_2 out_3 vdd gnd and3_dec
XXpre3x8_and_4 inbar_0 inbar_1 in_2 out_4 vdd gnd and3_dec
XXpre3x8_and_5 in_0 inbar_1 in_2 out_5 vdd gnd and3_dec
XXpre3x8_and_6 inbar_0 in_1 in_2 out_6 vdd gnd and3_dec
XXpre3x8_and_7 in_0 in_1 in_2 out_7 vdd gnd and3_dec
.ENDS hierarchical_predecode3x8

.SUBCKT pnand4 A B C D Z vdd gnd
* INPUT : A 
* INPUT : B 
* INPUT : C 
* INPUT : D 
* OUTPUT: Z 
* POWER : vdd 
* GROUND: gnd 
Mpnand4_pmos1 vdd A Z vdd pmos_vtg m=1 w=0.27u l=0.05u pd=0.64u ps=0.64u as=0.03p ad=0.03p
Mpnand4_pmos2 Z B vdd vdd pmos_vtg m=1 w=0.27u l=0.05u pd=0.64u ps=0.64u as=0.03p ad=0.03p
Mpnand4_pmos3 Z C vdd vdd pmos_vtg m=1 w=0.27u l=0.05u pd=0.64u ps=0.64u as=0.03p ad=0.03p
Mpnand4_pmos4 Z D vdd vdd pmos_vtg m=1 w=0.27u l=0.05u pd=0.64u ps=0.64u as=0.03p ad=0.03p
Mpnand4_nmos1 Z D net1 gnd nmos_vtg m=1 w=0.18u l=0.05u pd=0.46u ps=0.46u as=0.02p ad=0.02p
Mpnand4_nmos2 net1 C net2 gnd nmos_vtg m=1 w=0.18u l=0.05u pd=0.46u ps=0.46u as=0.02p ad=0.02p
Mpnand4_nmos3 net2 B net3 gnd nmos_vtg m=1 w=0.18u l=0.05u pd=0.46u ps=0.46u as=0.02p ad=0.02p
Mpnand4_nmos4 net3 A gnd gnd nmos_vtg m=1 w=0.18u l=0.05u pd=0.46u ps=0.46u as=0.02p ad=0.02p
.ENDS pnand4

.SUBCKT and4_dec A B C D Z vdd gnd
* INPUT : A 
* INPUT : B 
* INPUT : C 
* INPUT : D 
* OUTPUT: Z 
* POWER : vdd 
* GROUND: gnd 
* size: 1
Xpand4_dec_nand A B C D zb_int vdd gnd pnand4
Xpand4_dec_inv zb_int Z vdd gnd pinv
.ENDS and4_dec

.SUBCKT hierarchical_predecode4x16 in_0 in_1 in_2 in_3 out_0 out_1 out_2 out_3 out_4 out_5 out_6 out_7 out_8 out_9 out_10 out_11 out_12 out_13 out_14 out_15 vdd gnd
* INPUT : in_0 
* INPUT : in_1 
* INPUT : in_2 
* INPUT : in_3 
* OUTPUT: out_0 
* OUTPUT: out_1 
* OUTPUT: out_2 
* OUTPUT: out_3 
* OUTPUT: out_4 
* OUTPUT: out_5 
* OUTPUT: out_6 
* OUTPUT: out_7 
* OUTPUT: out_8 
* OUTPUT: out_9 
* OUTPUT: out_10 
* OUTPUT: out_11 
* OUTPUT: out_12 
* OUTPUT: out_13 
* OUTPUT: out_14 
* OUTPUT: out_15 
* POWER : vdd 
* GROUND: gnd 
Xpre_inv_0 in_0 inbar_0 vdd gnd pinv
Xpre_inv_1 in_1 inbar_1 vdd gnd pinv
Xpre_inv_2 in_2 inbar_2 vdd gnd pinv
Xpre_inv_3 in_3 inbar_3 vdd gnd pinv
XXpre4x16_and_0 inbar_0 inbar_1 inbar_2 inbar_3 out_0 vdd gnd and4_dec
XXpre4x16_and_1 in_0 inbar_1 inbar_2 inbar_3 out_1 vdd gnd and4_dec
XXpre4x16_and_2 inbar_0 in_1 inbar_2 inbar_3 out_2 vdd gnd and4_dec
XXpre4x16_and_3 in_0 in_1 inbar_2 inbar_3 out_3 vdd gnd and4_dec
XXpre4x16_and_4 inbar_0 inbar_1 in_2 inbar_3 out_4 vdd gnd and4_dec
XXpre4x16_and_5 in_0 inbar_1 in_2 inbar_3 out_5 vdd gnd and4_dec
XXpre4x16_and_6 inbar_0 in_1 in_2 inbar_3 out_6 vdd gnd and4_dec
XXpre4x16_and_7 in_0 in_1 in_2 inbar_3 out_7 vdd gnd and4_dec
XXpre4x16_and_8 inbar_0 inbar_1 inbar_2 in_3 out_8 vdd gnd and4_dec
XXpre4x16_and_9 in_0 inbar_1 inbar_2 in_3 out_9 vdd gnd and4_dec
XXpre4x16_and_10 inbar_0 in_1 inbar_2 in_3 out_10 vdd gnd and4_dec
XXpre4x16_and_11 in_0 in_1 inbar_2 in_3 out_11 vdd gnd and4_dec
XXpre4x16_and_12 inbar_0 inbar_1 in_2 in_3 out_12 vdd gnd and4_dec
XXpre4x16_and_13 in_0 inbar_1 in_2 in_3 out_13 vdd gnd and4_dec
XXpre4x16_and_14 inbar_0 in_1 in_2 in_3 out_14 vdd gnd and4_dec
XXpre4x16_and_15 in_0 in_1 in_2 in_3 out_15 vdd gnd and4_dec
.ENDS hierarchical_predecode4x16

.SUBCKT hierarchical_decoder addr_0 addr_1 addr_2 addr_3 decode_0 decode_1 decode_2 decode_3 decode_4 decode_5 decode_6 decode_7 decode_8 decode_9 decode_10 decode_11 decode_12 decode_13 decode_14 decode_15 vdd gnd
* INPUT : addr_0 
* INPUT : addr_1 
* INPUT : addr_2 
* INPUT : addr_3 
* OUTPUT: decode_0 
* OUTPUT: decode_1 
* OUTPUT: decode_2 
* OUTPUT: decode_3 
* OUTPUT: decode_4 
* OUTPUT: decode_5 
* OUTPUT: decode_6 
* OUTPUT: decode_7 
* OUTPUT: decode_8 
* OUTPUT: decode_9 
* OUTPUT: decode_10 
* OUTPUT: decode_11 
* OUTPUT: decode_12 
* OUTPUT: decode_13 
* OUTPUT: decode_14 
* OUTPUT: decode_15 
* POWER : vdd 
* GROUND: gnd 
Xpre_0 addr_0 addr_1 out_0 out_1 out_2 out_3 vdd gnd hierarchical_predecode2x4
Xpre_1 addr_2 addr_3 out_4 out_5 out_6 out_7 vdd gnd hierarchical_predecode2x4
XDEC_AND_0 out_0 out_4 decode_0 vdd gnd and2_dec
XDEC_AND_4 out_0 out_5 decode_4 vdd gnd and2_dec
XDEC_AND_8 out_0 out_6 decode_8 vdd gnd and2_dec
XDEC_AND_12 out_0 out_7 decode_12 vdd gnd and2_dec
XDEC_AND_1 out_1 out_4 decode_1 vdd gnd and2_dec
XDEC_AND_5 out_1 out_5 decode_5 vdd gnd and2_dec
XDEC_AND_9 out_1 out_6 decode_9 vdd gnd and2_dec
XDEC_AND_13 out_1 out_7 decode_13 vdd gnd and2_dec
XDEC_AND_2 out_2 out_4 decode_2 vdd gnd and2_dec
XDEC_AND_6 out_2 out_5 decode_6 vdd gnd and2_dec
XDEC_AND_10 out_2 out_6 decode_10 vdd gnd and2_dec
XDEC_AND_14 out_2 out_7 decode_14 vdd gnd and2_dec
XDEC_AND_3 out_3 out_4 decode_3 vdd gnd and2_dec
XDEC_AND_7 out_3 out_5 decode_7 vdd gnd and2_dec
XDEC_AND_11 out_3 out_6 decode_11 vdd gnd and2_dec
XDEC_AND_15 out_3 out_7 decode_15 vdd gnd and2_dec
.ENDS hierarchical_decoder

* spice ptx M{0} {1} nmos_vtg m=1 w=0.36u l=0.05u pd=0.82u ps=0.82u as=0.04p ad=0.04p

* spice ptx M{0} {1} pmos_vtg m=1 w=1.08u l=0.05u pd=2.26u ps=2.26u as=0.14p ad=0.14p

.SUBCKT pinv_0 A Z vdd gnd
* INPUT : A 
* OUTPUT: Z 
* POWER : vdd 
* GROUND: gnd 
Mpinv_pmos Z A vdd vdd pmos_vtg m=1 w=1.08u l=0.05u pd=2.26u ps=2.26u as=0.14p ad=0.14p
Mpinv_nmos Z A gnd gnd nmos_vtg m=1 w=0.36u l=0.05u pd=0.82u ps=0.82u as=0.04p ad=0.04p
.ENDS pinv_0

.SUBCKT wordline_driver din en wl vdd vwl gnd
* INPUT : din 
* INPUT : en 
* OUTPUT: wl 
* POWER : vdd 
* POWER : vwl 
* GROUND: gnd 
Xwld_nand din en g_bar vdd gnd pnand2
Xwl_driver g_bar wl vwl gnd pinv_0
*MM1 gnd g_bar wl gnd NMOS_VTG W=1440.00n L=50n
*MM2 vwl g wl gnd NMOS_VTG W=1440.00n L=50n
.ENDS wordline_driver

.SUBCKT wordline_driver_array in_0 in_1 in_2 in_3 in_4 in_5 in_6 in_7 in_8 in_9 in_10 in_11 in_12 in_13 in_14 in_15 wl_0 wl_1 wl_2 wl_3 wl_4 wl_5 wl_6 wl_7 wl_8 wl_9 wl_10 wl_11 wl_12 wl_13 wl_14 wl_15 en vdd vwl gnd
* INPUT : in_0 
* INPUT : in_1 
* INPUT : in_2 
* INPUT : in_3 
* INPUT : in_4 
* INPUT : in_5 
* INPUT : in_6 
* INPUT : in_7 
* INPUT : in_8 
* INPUT : in_9 
* INPUT : in_10 
* INPUT : in_11 
* INPUT : in_12 
* INPUT : in_13 
* INPUT : in_14 
* INPUT : in_15 
* OUTPUT: wl_0 
* OUTPUT: wl_1 
* OUTPUT: wl_2 
* OUTPUT: wl_3 
* OUTPUT: wl_4 
* OUTPUT: wl_5 
* OUTPUT: wl_6 
* OUTPUT: wl_7 
* OUTPUT: wl_8 
* OUTPUT: wl_9 
* OUTPUT: wl_10 
* OUTPUT: wl_11 
* OUTPUT: wl_12 
* OUTPUT: wl_13 
* OUTPUT: wl_14 
* OUTPUT: wl_15 
* INPUT : en 
* POWER : vdd 
* POWER : vwl
* GROUND: gnd 
* rows: 16 cols: 16
Xwl_driver_and0 in_0 en wl_0 vdd vwl gnd wordline_driver
Xwl_driver_and1 in_1 en wl_1 vdd vwl gnd wordline_driver
Xwl_driver_and2 in_2 en wl_2 vdd vwl gnd wordline_driver
Xwl_driver_and3 in_3 en wl_3 vdd vwl gnd wordline_driver
Xwl_driver_and4 in_4 en wl_4 vdd vwl gnd wordline_driver
Xwl_driver_and5 in_5 en wl_5 vdd vwl gnd wordline_driver
Xwl_driver_and6 in_6 en wl_6 vdd vwl gnd wordline_driver
Xwl_driver_and7 in_7 en wl_7 vdd vwl gnd wordline_driver
Xwl_driver_and8 in_8 en wl_8 vdd vwl gnd wordline_driver
Xwl_driver_and9 in_9 en wl_9 vdd vwl gnd wordline_driver
Xwl_driver_and10 in_10 en wl_10 vdd vwl gnd wordline_driver
Xwl_driver_and11 in_11 en wl_11 vdd vwl gnd wordline_driver
Xwl_driver_and12 in_12 en wl_12 vdd vwl gnd wordline_driver
Xwl_driver_and13 in_13 en wl_13 vdd vwl gnd wordline_driver
Xwl_driver_and14 in_14 en wl_14 vdd vwl gnd wordline_driver
Xwl_driver_and15 in_15 en wl_15 vdd vwl gnd wordline_driver
.ENDS wordline_driver_array

.SUBCKT pinv_1 A Z vdd gnd
* INPUT : A 
* OUTPUT: Z 
* POWER : vdd 
* GROUND: gnd 
Mpinv_pmos Z A vdd vdd pmos_vtg m=1 w=1.08u l=0.05u pd=2.26u ps=2.26u as=0.14p ad=0.14p
Mpinv_nmos Z A gnd gnd nmos_vtg m=1 w=0.36u l=0.05u pd=0.82u ps=0.82u as=0.04p ad=0.04p
.ENDS pinv_1

.SUBCKT pbuf A Z vdd gnd
* INPUT : A 
* OUTPUT: Z 
* POWER : vdd 
* GROUND: gnd 
Xbuf_inv1 A zb_int vdd gnd pinv
Xbuf_inv2 zb_int Z vdd gnd pinv_1
.ENDS pbuf

.SUBCKT port_address addr_0 addr_1 addr_2 addr_3 wl_en wl_0 wl_1 wl_2 wl_3 wl_4 wl_5 wl_6 wl_7 wl_8 wl_9 wl_10 wl_11 wl_12 wl_13 wl_14 wl_15 vdd vwl gnd
* INPUT : addr_0 
* INPUT : addr_1 
* INPUT : addr_2 
* INPUT : addr_3 
* INPUT : wl_en 
* OUTPUT: wl_0 
* OUTPUT: wl_1 
* OUTPUT: wl_2 
* OUTPUT: wl_3 
* OUTPUT: wl_4 
* OUTPUT: wl_5 
* OUTPUT: wl_6 
* OUTPUT: wl_7 
* OUTPUT: wl_8 
* OUTPUT: wl_9 
* OUTPUT: wl_10 
* OUTPUT: wl_11 
* OUTPUT: wl_12 
* OUTPUT: wl_13 
* OUTPUT: wl_14 
* OUTPUT: wl_15 
* POWER : vdd 
* POWER: vwl
* GROUND: gnd 
Xrow_decoder addr_0 addr_1 addr_2 addr_3 dec_out_0 dec_out_1 dec_out_2 dec_out_3 dec_out_4 dec_out_5 dec_out_6 dec_out_7 dec_out_8 dec_out_9 dec_out_10 dec_out_11 dec_out_12 dec_out_13 dec_out_14 dec_out_15 vdd gnd hierarchical_decoder
Xwordline_driver dec_out_0 dec_out_1 dec_out_2 dec_out_3 dec_out_4 dec_out_5 dec_out_6 dec_out_7 dec_out_8 dec_out_9 dec_out_10 dec_out_11 dec_out_12 dec_out_13 dec_out_14 dec_out_15 wl_0 wl_1 wl_2 wl_3 wl_4 wl_5 wl_6 wl_7 wl_8 wl_9 wl_10 wl_11 wl_12 wl_13 wl_14 wl_15 wl_en vdd vwl gnd wordline_driver_array
.ENDS port_address

.SUBCKT cell_6t bl br wl vdd gnd
* Inverter 1
MM0 Q_bar Q gnd gnd NMOS_VTG W=205.00n L=50n
MM4 Q_bar Q vdd vdd PMOS_VTG W=90n L=50n

* Inverer 2
MM1 Q Q_bar gnd gnd NMOS_VTG W=205.00n L=50n
MM5 Q Q_bar vdd vdd PMOS_VTG W=90n L=50n

* Access transistors
MM3 bl wl Q gnd NMOS_VTG W=135.00n L=50n
MM2 br wl Q_bar gnd NMOS_VTG W=135.00n L=50n
.ENDS cell_6t


.SUBCKT bitcell_array bl_0_0 br_0_0 bl_0_1 br_0_1 bl_0_2 br_0_2 bl_0_3 br_0_3 bl_0_4 br_0_4 bl_0_5 br_0_5 bl_0_6 br_0_6 bl_0_7 br_0_7 bl_0_8 br_0_8 bl_0_9 br_0_9 bl_0_10 br_0_10 bl_0_11 br_0_11 bl_0_12 br_0_12 bl_0_13 br_0_13 bl_0_14 br_0_14 bl_0_15 br_0_15 wl_0_0 wl_0_1 wl_0_2 wl_0_3 wl_0_4 wl_0_5 wl_0_6 wl_0_7 wl_0_8 wl_0_9 wl_0_10 wl_0_11 wl_0_12 wl_0_13 wl_0_14 wl_0_15 gnd
* INOUT : bl_0_0 
* INOUT : br_0_0 
* INOUT : bl_0_1 
* INOUT : br_0_1 
* INOUT : bl_0_2 
* INOUT : br_0_2 
* INOUT : bl_0_3 
* INOUT : br_0_3 
* INOUT : bl_0_4 
* INOUT : br_0_4 
* INOUT : bl_0_5 
* INOUT : br_0_5 
* INOUT : bl_0_6 
* INOUT : br_0_6 
* INOUT : bl_0_7 
* INOUT : br_0_7 
* INOUT : bl_0_8 
* INOUT : br_0_8 
* INOUT : bl_0_9 
* INOUT : br_0_9 
* INOUT : bl_0_10 
* INOUT : br_0_10 
* INOUT : bl_0_11 
* INOUT : br_0_11 
* INOUT : bl_0_12 
* INOUT : br_0_12 
* INOUT : bl_0_13 
* INOUT : br_0_13 
* INOUT : bl_0_14 
* INOUT : br_0_14 
* INOUT : bl_0_15 
* INOUT : br_0_15 
* INPUT : wl_0_0 
* INPUT : wl_0_1 
* INPUT : wl_0_2 
* INPUT : wl_0_3 
* INPUT : wl_0_4 
* INPUT : wl_0_5 
* INPUT : wl_0_6 
* INPUT : wl_0_7 
* INPUT : wl_0_8 
* INPUT : wl_0_9 
* INPUT : wl_0_10 
* INPUT : wl_0_11 
* INPUT : wl_0_12 
* INPUT : wl_0_13 
* INPUT : wl_0_14 
* INPUT : wl_0_15 
* GROUND: gnd 
* rows: 16 cols: 16
Xbit_r0_c0 bl_0_0 br_0_0 wl_0_0 gnd cell_1t1r
Xbit_r1_c0 bl_0_0 br_0_0 wl_0_1 gnd cell_1t1r
Xbit_r2_c0 bl_0_0 br_0_0 wl_0_2 gnd cell_1t1r
Xbit_r3_c0 bl_0_0 br_0_0 wl_0_3 gnd cell_1t1r
Xbit_r4_c0 bl_0_0 br_0_0 wl_0_4 gnd cell_1t1r
Xbit_r5_c0 bl_0_0 br_0_0 wl_0_5 gnd cell_1t1r
Xbit_r6_c0 bl_0_0 br_0_0 wl_0_6 gnd cell_1t1r
Xbit_r7_c0 bl_0_0 br_0_0 wl_0_7 gnd cell_1t1r
Xbit_r8_c0 bl_0_0 br_0_0 wl_0_8 gnd cell_1t1r
Xbit_r9_c0 bl_0_0 br_0_0 wl_0_9 gnd cell_1t1r
Xbit_r10_c0 bl_0_0 br_0_0 wl_0_10 gnd cell_1t1r
Xbit_r11_c0 bl_0_0 br_0_0 wl_0_11 gnd cell_1t1r
Xbit_r12_c0 bl_0_0 br_0_0 wl_0_12 gnd cell_1t1r
Xbit_r13_c0 bl_0_0 br_0_0 wl_0_13 gnd cell_1t1r
Xbit_r14_c0 bl_0_0 br_0_0 wl_0_14 gnd cell_1t1r
Xbit_r15_c0 bl_0_0 br_0_0 wl_0_15 gnd cell_1t1r
Xbit_r0_c1 bl_0_1 br_0_1 wl_0_0 gnd cell_1t1r
Xbit_r1_c1 bl_0_1 br_0_1 wl_0_1 gnd cell_1t1r
Xbit_r2_c1 bl_0_1 br_0_1 wl_0_2 gnd cell_1t1r
Xbit_r3_c1 bl_0_1 br_0_1 wl_0_3 gnd cell_1t1r
Xbit_r4_c1 bl_0_1 br_0_1 wl_0_4 gnd cell_1t1r
Xbit_r5_c1 bl_0_1 br_0_1 wl_0_5 gnd cell_1t1r
Xbit_r6_c1 bl_0_1 br_0_1 wl_0_6 gnd cell_1t1r
Xbit_r7_c1 bl_0_1 br_0_1 wl_0_7 gnd cell_1t1r
Xbit_r8_c1 bl_0_1 br_0_1 wl_0_8 gnd cell_1t1r
Xbit_r9_c1 bl_0_1 br_0_1 wl_0_9 gnd cell_1t1r
Xbit_r10_c1 bl_0_1 br_0_1 wl_0_10 gnd cell_1t1r
Xbit_r11_c1 bl_0_1 br_0_1 wl_0_11 gnd cell_1t1r
Xbit_r12_c1 bl_0_1 br_0_1 wl_0_12 gnd cell_1t1r
Xbit_r13_c1 bl_0_1 br_0_1 wl_0_13 gnd cell_1t1r
Xbit_r14_c1 bl_0_1 br_0_1 wl_0_14 gnd cell_1t1r
Xbit_r15_c1 bl_0_1 br_0_1 wl_0_15 gnd cell_1t1r
Xbit_r0_c2 bl_0_2 br_0_2 wl_0_0 gnd cell_1t1r
Xbit_r1_c2 bl_0_2 br_0_2 wl_0_1 gnd cell_1t1r
Xbit_r2_c2 bl_0_2 br_0_2 wl_0_2 gnd cell_1t1r
Xbit_r3_c2 bl_0_2 br_0_2 wl_0_3 gnd cell_1t1r
Xbit_r4_c2 bl_0_2 br_0_2 wl_0_4 gnd cell_1t1r
Xbit_r5_c2 bl_0_2 br_0_2 wl_0_5 gnd cell_1t1r
Xbit_r6_c2 bl_0_2 br_0_2 wl_0_6 gnd cell_1t1r
Xbit_r7_c2 bl_0_2 br_0_2 wl_0_7 gnd cell_1t1r
Xbit_r8_c2 bl_0_2 br_0_2 wl_0_8 gnd cell_1t1r
Xbit_r9_c2 bl_0_2 br_0_2 wl_0_9 gnd cell_1t1r
Xbit_r10_c2 bl_0_2 br_0_2 wl_0_10 gnd cell_1t1r
Xbit_r11_c2 bl_0_2 br_0_2 wl_0_11 gnd cell_1t1r
Xbit_r12_c2 bl_0_2 br_0_2 wl_0_12 gnd cell_1t1r
Xbit_r13_c2 bl_0_2 br_0_2 wl_0_13 gnd cell_1t1r
Xbit_r14_c2 bl_0_2 br_0_2 wl_0_14 gnd cell_1t1r
Xbit_r15_c2 bl_0_2 br_0_2 wl_0_15 gnd cell_1t1r
Xbit_r0_c3 bl_0_3 br_0_3 wl_0_0 gnd cell_1t1r
Xbit_r1_c3 bl_0_3 br_0_3 wl_0_1 gnd cell_1t1r
Xbit_r2_c3 bl_0_3 br_0_3 wl_0_2 gnd cell_1t1r
Xbit_r3_c3 bl_0_3 br_0_3 wl_0_3 gnd cell_1t1r
Xbit_r4_c3 bl_0_3 br_0_3 wl_0_4 gnd cell_1t1r
Xbit_r5_c3 bl_0_3 br_0_3 wl_0_5 gnd cell_1t1r
Xbit_r6_c3 bl_0_3 br_0_3 wl_0_6 gnd cell_1t1r
Xbit_r7_c3 bl_0_3 br_0_3 wl_0_7 gnd cell_1t1r
Xbit_r8_c3 bl_0_3 br_0_3 wl_0_8 gnd cell_1t1r
Xbit_r9_c3 bl_0_3 br_0_3 wl_0_9 gnd cell_1t1r
Xbit_r10_c3 bl_0_3 br_0_3 wl_0_10 gnd cell_1t1r
Xbit_r11_c3 bl_0_3 br_0_3 wl_0_11 gnd cell_1t1r
Xbit_r12_c3 bl_0_3 br_0_3 wl_0_12 gnd cell_1t1r
Xbit_r13_c3 bl_0_3 br_0_3 wl_0_13 gnd cell_1t1r
Xbit_r14_c3 bl_0_3 br_0_3 wl_0_14 gnd cell_1t1r
Xbit_r15_c3 bl_0_3 br_0_3 wl_0_15 gnd cell_1t1r
Xbit_r0_c4 bl_0_4 br_0_4 wl_0_0 gnd cell_1t1r
Xbit_r1_c4 bl_0_4 br_0_4 wl_0_1 gnd cell_1t1r
Xbit_r2_c4 bl_0_4 br_0_4 wl_0_2 gnd cell_1t1r
Xbit_r3_c4 bl_0_4 br_0_4 wl_0_3 gnd cell_1t1r
Xbit_r4_c4 bl_0_4 br_0_4 wl_0_4 gnd cell_1t1r
Xbit_r5_c4 bl_0_4 br_0_4 wl_0_5 gnd cell_1t1r
Xbit_r6_c4 bl_0_4 br_0_4 wl_0_6 gnd cell_1t1r
Xbit_r7_c4 bl_0_4 br_0_4 wl_0_7 gnd cell_1t1r
Xbit_r8_c4 bl_0_4 br_0_4 wl_0_8 gnd cell_1t1r
Xbit_r9_c4 bl_0_4 br_0_4 wl_0_9 gnd cell_1t1r
Xbit_r10_c4 bl_0_4 br_0_4 wl_0_10 gnd cell_1t1r
Xbit_r11_c4 bl_0_4 br_0_4 wl_0_11 gnd cell_1t1r
Xbit_r12_c4 bl_0_4 br_0_4 wl_0_12 gnd cell_1t1r
Xbit_r13_c4 bl_0_4 br_0_4 wl_0_13 gnd cell_1t1r
Xbit_r14_c4 bl_0_4 br_0_4 wl_0_14 gnd cell_1t1r
Xbit_r15_c4 bl_0_4 br_0_4 wl_0_15 gnd cell_1t1r
Xbit_r0_c5 bl_0_5 br_0_5 wl_0_0 gnd cell_1t1r
Xbit_r1_c5 bl_0_5 br_0_5 wl_0_1 gnd cell_1t1r
Xbit_r2_c5 bl_0_5 br_0_5 wl_0_2 gnd cell_1t1r
Xbit_r3_c5 bl_0_5 br_0_5 wl_0_3 gnd cell_1t1r
Xbit_r4_c5 bl_0_5 br_0_5 wl_0_4 gnd cell_1t1r
Xbit_r5_c5 bl_0_5 br_0_5 wl_0_5 gnd cell_1t1r
Xbit_r6_c5 bl_0_5 br_0_5 wl_0_6 gnd cell_1t1r
Xbit_r7_c5 bl_0_5 br_0_5 wl_0_7 gnd cell_1t1r
Xbit_r8_c5 bl_0_5 br_0_5 wl_0_8 gnd cell_1t1r
Xbit_r9_c5 bl_0_5 br_0_5 wl_0_9 gnd cell_1t1r
Xbit_r10_c5 bl_0_5 br_0_5 wl_0_10 gnd cell_1t1r
Xbit_r11_c5 bl_0_5 br_0_5 wl_0_11 gnd cell_1t1r
Xbit_r12_c5 bl_0_5 br_0_5 wl_0_12 gnd cell_1t1r
Xbit_r13_c5 bl_0_5 br_0_5 wl_0_13 gnd cell_1t1r
Xbit_r14_c5 bl_0_5 br_0_5 wl_0_14 gnd cell_1t1r
Xbit_r15_c5 bl_0_5 br_0_5 wl_0_15 gnd cell_1t1r
Xbit_r0_c6 bl_0_6 br_0_6 wl_0_0 gnd cell_1t1r
Xbit_r1_c6 bl_0_6 br_0_6 wl_0_1 gnd cell_1t1r
Xbit_r2_c6 bl_0_6 br_0_6 wl_0_2 gnd cell_1t1r
Xbit_r3_c6 bl_0_6 br_0_6 wl_0_3 gnd cell_1t1r
Xbit_r4_c6 bl_0_6 br_0_6 wl_0_4 gnd cell_1t1r
Xbit_r5_c6 bl_0_6 br_0_6 wl_0_5 gnd cell_1t1r
Xbit_r6_c6 bl_0_6 br_0_6 wl_0_6 gnd cell_1t1r
Xbit_r7_c6 bl_0_6 br_0_6 wl_0_7 gnd cell_1t1r
Xbit_r8_c6 bl_0_6 br_0_6 wl_0_8 gnd cell_1t1r
Xbit_r9_c6 bl_0_6 br_0_6 wl_0_9 gnd cell_1t1r
Xbit_r10_c6 bl_0_6 br_0_6 wl_0_10 gnd cell_1t1r
Xbit_r11_c6 bl_0_6 br_0_6 wl_0_11 gnd cell_1t1r
Xbit_r12_c6 bl_0_6 br_0_6 wl_0_12 gnd cell_1t1r
Xbit_r13_c6 bl_0_6 br_0_6 wl_0_13 gnd cell_1t1r
Xbit_r14_c6 bl_0_6 br_0_6 wl_0_14 gnd cell_1t1r
Xbit_r15_c6 bl_0_6 br_0_6 wl_0_15 gnd cell_1t1r
Xbit_r0_c7 bl_0_7 br_0_7 wl_0_0 gnd cell_1t1r
Xbit_r1_c7 bl_0_7 br_0_7 wl_0_1 gnd cell_1t1r
Xbit_r2_c7 bl_0_7 br_0_7 wl_0_2 gnd cell_1t1r
Xbit_r3_c7 bl_0_7 br_0_7 wl_0_3 gnd cell_1t1r
Xbit_r4_c7 bl_0_7 br_0_7 wl_0_4 gnd cell_1t1r
Xbit_r5_c7 bl_0_7 br_0_7 wl_0_5 gnd cell_1t1r
Xbit_r6_c7 bl_0_7 br_0_7 wl_0_6 gnd cell_1t1r
Xbit_r7_c7 bl_0_7 br_0_7 wl_0_7 gnd cell_1t1r
Xbit_r8_c7 bl_0_7 br_0_7 wl_0_8 gnd cell_1t1r
Xbit_r9_c7 bl_0_7 br_0_7 wl_0_9 gnd cell_1t1r
Xbit_r10_c7 bl_0_7 br_0_7 wl_0_10 gnd cell_1t1r
Xbit_r11_c7 bl_0_7 br_0_7 wl_0_11 gnd cell_1t1r
Xbit_r12_c7 bl_0_7 br_0_7 wl_0_12 gnd cell_1t1r
Xbit_r13_c7 bl_0_7 br_0_7 wl_0_13 gnd cell_1t1r
Xbit_r14_c7 bl_0_7 br_0_7 wl_0_14 gnd cell_1t1r
Xbit_r15_c7 bl_0_7 br_0_7 wl_0_15 gnd cell_1t1r
Xbit_r0_c8 bl_0_8 br_0_8 wl_0_0 gnd cell_1t1r
Xbit_r1_c8 bl_0_8 br_0_8 wl_0_1 gnd cell_1t1r
Xbit_r2_c8 bl_0_8 br_0_8 wl_0_2 gnd cell_1t1r
Xbit_r3_c8 bl_0_8 br_0_8 wl_0_3 gnd cell_1t1r
Xbit_r4_c8 bl_0_8 br_0_8 wl_0_4 gnd cell_1t1r
Xbit_r5_c8 bl_0_8 br_0_8 wl_0_5 gnd cell_1t1r
Xbit_r6_c8 bl_0_8 br_0_8 wl_0_6 gnd cell_1t1r
Xbit_r7_c8 bl_0_8 br_0_8 wl_0_7 gnd cell_1t1r
Xbit_r8_c8 bl_0_8 br_0_8 wl_0_8 gnd cell_1t1r
Xbit_r9_c8 bl_0_8 br_0_8 wl_0_9 gnd cell_1t1r
Xbit_r10_c8 bl_0_8 br_0_8 wl_0_10 gnd cell_1t1r
Xbit_r11_c8 bl_0_8 br_0_8 wl_0_11 gnd cell_1t1r
Xbit_r12_c8 bl_0_8 br_0_8 wl_0_12 gnd cell_1t1r
Xbit_r13_c8 bl_0_8 br_0_8 wl_0_13 gnd cell_1t1r
Xbit_r14_c8 bl_0_8 br_0_8 wl_0_14 gnd cell_1t1r
Xbit_r15_c8 bl_0_8 br_0_8 wl_0_15 gnd cell_1t1r
Xbit_r0_c9 bl_0_9 br_0_9 wl_0_0 gnd cell_1t1r
Xbit_r1_c9 bl_0_9 br_0_9 wl_0_1 gnd cell_1t1r
Xbit_r2_c9 bl_0_9 br_0_9 wl_0_2 gnd cell_1t1r
Xbit_r3_c9 bl_0_9 br_0_9 wl_0_3 gnd cell_1t1r
Xbit_r4_c9 bl_0_9 br_0_9 wl_0_4 gnd cell_1t1r
Xbit_r5_c9 bl_0_9 br_0_9 wl_0_5 gnd cell_1t1r
Xbit_r6_c9 bl_0_9 br_0_9 wl_0_6 gnd cell_1t1r
Xbit_r7_c9 bl_0_9 br_0_9 wl_0_7 gnd cell_1t1r
Xbit_r8_c9 bl_0_9 br_0_9 wl_0_8 gnd cell_1t1r
Xbit_r9_c9 bl_0_9 br_0_9 wl_0_9 gnd cell_1t1r
Xbit_r10_c9 bl_0_9 br_0_9 wl_0_10 gnd cell_1t1r
Xbit_r11_c9 bl_0_9 br_0_9 wl_0_11 gnd cell_1t1r
Xbit_r12_c9 bl_0_9 br_0_9 wl_0_12 gnd cell_1t1r
Xbit_r13_c9 bl_0_9 br_0_9 wl_0_13 gnd cell_1t1r
Xbit_r14_c9 bl_0_9 br_0_9 wl_0_14 gnd cell_1t1r
Xbit_r15_c9 bl_0_9 br_0_9 wl_0_15 gnd cell_1t1r
Xbit_r0_c10 bl_0_10 br_0_10 wl_0_0 gnd cell_1t1r
Xbit_r1_c10 bl_0_10 br_0_10 wl_0_1 gnd cell_1t1r
Xbit_r2_c10 bl_0_10 br_0_10 wl_0_2 gnd cell_1t1r
Xbit_r3_c10 bl_0_10 br_0_10 wl_0_3 gnd cell_1t1r
Xbit_r4_c10 bl_0_10 br_0_10 wl_0_4 gnd cell_1t1r
Xbit_r5_c10 bl_0_10 br_0_10 wl_0_5 gnd cell_1t1r
Xbit_r6_c10 bl_0_10 br_0_10 wl_0_6 gnd cell_1t1r
Xbit_r7_c10 bl_0_10 br_0_10 wl_0_7 gnd cell_1t1r
Xbit_r8_c10 bl_0_10 br_0_10 wl_0_8 gnd cell_1t1r
Xbit_r9_c10 bl_0_10 br_0_10 wl_0_9 gnd cell_1t1r
Xbit_r10_c10 bl_0_10 br_0_10 wl_0_10 gnd cell_1t1r
Xbit_r11_c10 bl_0_10 br_0_10 wl_0_11 gnd cell_1t1r
Xbit_r12_c10 bl_0_10 br_0_10 wl_0_12 gnd cell_1t1r
Xbit_r13_c10 bl_0_10 br_0_10 wl_0_13 gnd cell_1t1r
Xbit_r14_c10 bl_0_10 br_0_10 wl_0_14 gnd cell_1t1r
Xbit_r15_c10 bl_0_10 br_0_10 wl_0_15 gnd cell_1t1r
Xbit_r0_c11 bl_0_11 br_0_11 wl_0_0 gnd cell_1t1r
Xbit_r1_c11 bl_0_11 br_0_11 wl_0_1 gnd cell_1t1r
Xbit_r2_c11 bl_0_11 br_0_11 wl_0_2 gnd cell_1t1r
Xbit_r3_c11 bl_0_11 br_0_11 wl_0_3 gnd cell_1t1r
Xbit_r4_c11 bl_0_11 br_0_11 wl_0_4 gnd cell_1t1r
Xbit_r5_c11 bl_0_11 br_0_11 wl_0_5 gnd cell_1t1r
Xbit_r6_c11 bl_0_11 br_0_11 wl_0_6 gnd cell_1t1r
Xbit_r7_c11 bl_0_11 br_0_11 wl_0_7 gnd cell_1t1r
Xbit_r8_c11 bl_0_11 br_0_11 wl_0_8 gnd cell_1t1r
Xbit_r9_c11 bl_0_11 br_0_11 wl_0_9 gnd cell_1t1r
Xbit_r10_c11 bl_0_11 br_0_11 wl_0_10 gnd cell_1t1r
Xbit_r11_c11 bl_0_11 br_0_11 wl_0_11 gnd cell_1t1r
Xbit_r12_c11 bl_0_11 br_0_11 wl_0_12 gnd cell_1t1r
Xbit_r13_c11 bl_0_11 br_0_11 wl_0_13 gnd cell_1t1r
Xbit_r14_c11 bl_0_11 br_0_11 wl_0_14 gnd cell_1t1r
Xbit_r15_c11 bl_0_11 br_0_11 wl_0_15 gnd cell_1t1r
Xbit_r0_c12 bl_0_12 br_0_12 wl_0_0 gnd cell_1t1r
Xbit_r1_c12 bl_0_12 br_0_12 wl_0_1 gnd cell_1t1r
Xbit_r2_c12 bl_0_12 br_0_12 wl_0_2 gnd cell_1t1r
Xbit_r3_c12 bl_0_12 br_0_12 wl_0_3 gnd cell_1t1r
Xbit_r4_c12 bl_0_12 br_0_12 wl_0_4 gnd cell_1t1r
Xbit_r5_c12 bl_0_12 br_0_12 wl_0_5 gnd cell_1t1r
Xbit_r6_c12 bl_0_12 br_0_12 wl_0_6 gnd cell_1t1r
Xbit_r7_c12 bl_0_12 br_0_12 wl_0_7 gnd cell_1t1r
Xbit_r8_c12 bl_0_12 br_0_12 wl_0_8 gnd cell_1t1r
Xbit_r9_c12 bl_0_12 br_0_12 wl_0_9 gnd cell_1t1r
Xbit_r10_c12 bl_0_12 br_0_12 wl_0_10 gnd cell_1t1r
Xbit_r11_c12 bl_0_12 br_0_12 wl_0_11 gnd cell_1t1r
Xbit_r12_c12 bl_0_12 br_0_12 wl_0_12 gnd cell_1t1r
Xbit_r13_c12 bl_0_12 br_0_12 wl_0_13 gnd cell_1t1r
Xbit_r14_c12 bl_0_12 br_0_12 wl_0_14 gnd cell_1t1r
Xbit_r15_c12 bl_0_12 br_0_12 wl_0_15 gnd cell_1t1r
Xbit_r0_c13 bl_0_13 br_0_13 wl_0_0 gnd cell_1t1r
Xbit_r1_c13 bl_0_13 br_0_13 wl_0_1 gnd cell_1t1r
Xbit_r2_c13 bl_0_13 br_0_13 wl_0_2 gnd cell_1t1r
Xbit_r3_c13 bl_0_13 br_0_13 wl_0_3 gnd cell_1t1r
Xbit_r4_c13 bl_0_13 br_0_13 wl_0_4 gnd cell_1t1r
Xbit_r5_c13 bl_0_13 br_0_13 wl_0_5 gnd cell_1t1r
Xbit_r6_c13 bl_0_13 br_0_13 wl_0_6 gnd cell_1t1r
Xbit_r7_c13 bl_0_13 br_0_13 wl_0_7 gnd cell_1t1r
Xbit_r8_c13 bl_0_13 br_0_13 wl_0_8 gnd cell_1t1r
Xbit_r9_c13 bl_0_13 br_0_13 wl_0_9 gnd cell_1t1r
Xbit_r10_c13 bl_0_13 br_0_13 wl_0_10 gnd cell_1t1r
Xbit_r11_c13 bl_0_13 br_0_13 wl_0_11 gnd cell_1t1r
Xbit_r12_c13 bl_0_13 br_0_13 wl_0_12 gnd cell_1t1r
Xbit_r13_c13 bl_0_13 br_0_13 wl_0_13 gnd cell_1t1r
Xbit_r14_c13 bl_0_13 br_0_13 wl_0_14 gnd cell_1t1r
Xbit_r15_c13 bl_0_13 br_0_13 wl_0_15 gnd cell_1t1r
Xbit_r0_c14 bl_0_14 br_0_14 wl_0_0 gnd cell_1t1r
Xbit_r1_c14 bl_0_14 br_0_14 wl_0_1 gnd cell_1t1r
Xbit_r2_c14 bl_0_14 br_0_14 wl_0_2 gnd cell_1t1r
Xbit_r3_c14 bl_0_14 br_0_14 wl_0_3 gnd cell_1t1r
Xbit_r4_c14 bl_0_14 br_0_14 wl_0_4 gnd cell_1t1r
Xbit_r5_c14 bl_0_14 br_0_14 wl_0_5 gnd cell_1t1r
Xbit_r6_c14 bl_0_14 br_0_14 wl_0_6 gnd cell_1t1r
Xbit_r7_c14 bl_0_14 br_0_14 wl_0_7 gnd cell_1t1r
Xbit_r8_c14 bl_0_14 br_0_14 wl_0_8 gnd cell_1t1r
Xbit_r9_c14 bl_0_14 br_0_14 wl_0_9 gnd cell_1t1r
Xbit_r10_c14 bl_0_14 br_0_14 wl_0_10 gnd cell_1t1r
Xbit_r11_c14 bl_0_14 br_0_14 wl_0_11 gnd cell_1t1r
Xbit_r12_c14 bl_0_14 br_0_14 wl_0_12 gnd cell_1t1r
Xbit_r13_c14 bl_0_14 br_0_14 wl_0_13 gnd cell_1t1r
Xbit_r14_c14 bl_0_14 br_0_14 wl_0_14 gnd cell_1t1r
Xbit_r15_c14 bl_0_14 br_0_14 wl_0_15 gnd cell_1t1r
Xbit_r0_c15 bl_0_15 br_0_15 wl_0_0 gnd cell_1t1r
Xbit_r1_c15 bl_0_15 br_0_15 wl_0_1 gnd cell_1t1r
Xbit_r2_c15 bl_0_15 br_0_15 wl_0_2 gnd cell_1t1r
Xbit_r3_c15 bl_0_15 br_0_15 wl_0_3 gnd cell_1t1r
Xbit_r4_c15 bl_0_15 br_0_15 wl_0_4 gnd cell_1t1r
Xbit_r5_c15 bl_0_15 br_0_15 wl_0_5 gnd cell_1t1r
Xbit_r6_c15 bl_0_15 br_0_15 wl_0_6 gnd cell_1t1r
Xbit_r7_c15 bl_0_15 br_0_15 wl_0_7 gnd cell_1t1r
Xbit_r8_c15 bl_0_15 br_0_15 wl_0_8 gnd cell_1t1r
Xbit_r9_c15 bl_0_15 br_0_15 wl_0_9 gnd cell_1t1r